In line no 5, Inserting A with type INT in symbol table.
In line no 7, Inserting B with type INT in symbol table.
Parsing finished!
============= INTERMEDIATE CODE===============
  0: start              -1
  1: ld_int              2
  2: store               0
  3: ld_int              3
  4: ld_var              0
  5: add                -1
  6: ld_int              5
  7: sub                -1
  8: store               1
  9: print               1
 10: halt               -1
============= ASM CODE===============

;start -1
.686
.model flat, c
include C:\masm32\include\msvcrt.inc
includelib C:\masm32\lib\msvcrt.lib

.stack 100h
printf PROTO arg1:Ptr Byte, printlist:VARARG

.data
output_integer_msg_format byte "%d", 0Ah, 0
number sdword ?

.code

main proc
	push ebp
	mov ebp, esp
	sub ebp, 100
	mov ebx, ebp
	add ebx, 4

;ld_int 2
	mov eax, 2
	mov dword ptr [ebx], eax
	add ebx, 4


;store 0
	mov dword ptr [ebp-0], eax

;ld_int 3
	mov eax, 3
	mov dword ptr [ebx], eax
	add ebx, 4


;ld_var 0
	mov eax, [ebp-0]
	mov dword ptr [ebx], eax
	add ebx, 4


;add -1
	sub ebx, 4
	mov eax, [ebx]
	sub ebx, 4
	mov edx, [ebx]
	add eax, edx
	mov dword ptr [ebx], eax
	add ebx, 4


;ld_int 5
	mov eax, 5
	mov dword ptr [ebx], eax
	add ebx, 4


;sub -1
	sub ebx, 4
	mov eax, [ebx]
	sub ebx, 4
	mov edx, [ebx]
	sub edx, eax
	mov eax, edx
	mov dword ptr [ebx], eax
	add ebx, 4


;store 1
	mov dword ptr [ebp-4], eax

;print 1
	push eax
	push ebx
	push ecx
	push edx
	push ebp
	mov eax, [ebp-4]
	INVOKE printf, ADDR output_integer_msg_format, eax
	pop ebp
	pop edx
	pop ecx
	pop ebx
	pop eax

;halt -1
	add ebp, 100
	mov esp, ebp
	pop ebp
	ret
main endp
end
