In line no 2, Inserting x with type INT_TYPE in symbol table.
In line no 3, Inserting y with type REAL_TYPE in symbol table.
In line no 4, Inserting isBalanced with type BOOL_TYPE in symbol table.
In line no 5, Inserting r1 with type REACTION_TYPE in symbol table.
In line no 5, Inserting r2 with type REACTION_TYPE in symbol table.
Parsing finished!
============= INTERMEDIATE CODE===============
  0: start              -1
  1: ld_int             10
  2: store               0
  3: ld_var              0
  4: ld_int              5
  5: add                -1
  6: store               1
  7: ld_int              0
  8: store               3
  9: ld_int              0
 10: store               4
 11: ld_int              1
 12: store               2
 13: ld_int              1
 14: if_start           14
 15: ld_var              0
 16: ld_int              1
 17: add                -1
 18: store               0
 19: else_start         14
 20: ld_var              0
 21: ld_int              1
 22: sub                -1
 23: store               0
 24: else_end           14
 25: while_label        25
 26: ld_var              0
 27: ld_int              5
 28: gt                 28
 29: while_start        25
 30: ld_var              1
 31: ld_int              1
 32: add                -1
 33: store               1
 34: ld_var              0
 35: ld_int              1
 36: sub                -1
 37: store               0
 38: while_end          25
 39: ld_var              2
 40: ld_var              0
 41: ld_int             10
 42: lt                 42
 43: mul                -1
 44: if_start           44
 45: ld_var              1
 46: ld_int              2
 47: mul                -1
 48: store               1
 49: else_start         44
 50: else_end           44
 51: halt               -1
============= ASM CODE===============

;start -1
.686
.model flat, c
include C:\masm32\include\msvcrt.inc
includelib C:\masm32\lib\msvcrt.lib

.stack 100h
printf PROTO arg1:Ptr Byte, printlist:VARARG
scanf PROTO arg2:Ptr Byte, inputlist:VARARG

.data
output_integer_msg_format byte "%d", 0Ah, 0
output_string_msg_format byte "%s", 0Ah, 0
input_integer_format byte "%d",0

number sdword ?

.code

main proc
	push ebp
	mov ebp, esp
	sub ebp, 100
	mov ebx, ebp
	add ebx, 4

;ld_int 10
	mov eax, 10
	mov dword ptr [ebx], eax
	add ebx, 4


;store 0
	mov eax, [ebx-4]
	mov dword ptr [ebp-0], eax

;ld_var 0
	mov eax, [ebp-0]
	mov dword ptr [ebx], eax
	add ebx, 4


;ld_int 5
	mov eax, 5
	mov dword ptr [ebx], eax
	add ebx, 4


;add -1
	sub ebx, 4
	mov eax, [ebx]
	sub ebx, 4
	mov edx, [ebx]
	add eax, edx
	mov dword ptr [ebx], eax
	add ebx, 4


;store 1
	mov eax, [ebx-4]
	mov dword ptr [ebp-4], eax

;ld_int 0
	mov eax, 0
	mov dword ptr [ebx], eax
	add ebx, 4


;store 3
	mov eax, [ebx-4]
	mov dword ptr [ebp-12], eax

;ld_int 0
	mov eax, 0
	mov dword ptr [ebx], eax
	add ebx, 4


;store 4
	mov eax, [ebx-4]
	mov dword ptr [ebp-16], eax

;ld_int 1
	mov eax, 1
	mov dword ptr [ebx], eax
	add ebx, 4


;store 2
	mov eax, [ebx-4]
	mov dword ptr [ebp-8], eax

;ld_int 1
	mov eax, 1
	mov dword ptr [ebx], eax
	add ebx, 4


;if_start 14
	mov eax, [ebx-4]
	cmp eax, 0
	jle ELSE_START_LABEL_14


;ld_var 0
	mov eax, [ebp-0]
	mov dword ptr [ebx], eax
	add ebx, 4


;ld_int 1
	mov eax, 1
	mov dword ptr [ebx], eax
	add ebx, 4


;add -1
	sub ebx, 4
	mov eax, [ebx]
	sub ebx, 4
	mov edx, [ebx]
	add eax, edx
	mov dword ptr [ebx], eax
	add ebx, 4


;store 0
	mov eax, [ebx-4]
	mov dword ptr [ebp-0], eax

;else_start 14
	jmp ELSE_END_LABEL_14
ELSE_START_LABEL_14:


;ld_var 0
	mov eax, [ebp-0]
	mov dword ptr [ebx], eax
	add ebx, 4


;ld_int 1
	mov eax, 1
	mov dword ptr [ebx], eax
	add ebx, 4


;sub -1
	sub ebx, 4
	mov eax, [ebx] ; right operand
	sub ebx, 4
	mov edx, [ebx] ; left operand
	sub edx, eax ; left - right
	mov dword ptr [ebx], edx
	add ebx, 4


;store 0
	mov eax, [ebx-4]
	mov dword ptr [ebp-0], eax

;else_end 14
ELSE_END_LABEL_14:


;while_label 25
WHILE_START_LABEL_25:


;ld_var 0
	mov eax, [ebp-0]
	mov dword ptr [ebx], eax
	add ebx, 4


;ld_int 5
	mov eax, 5
	mov dword ptr [ebx], eax
	add ebx, 4


;gt 28
	sub ebx, 4
	mov eax, [ebx]
	sub ebx, 4
	mov edx, [ebx]
	cmp edx, eax
	jg LS28
	mov dword ptr [ebx], 0
	jmp LE28
	LS28: mov dword ptr [ebx], 1
	LE28: add ebx, 4



;while_start 25
	mov eax, [ebx-4]
	cmp eax, 0
	jle WHILE_END_LABEL_25


;ld_var 1
	mov eax, [ebp-4]
	mov dword ptr [ebx], eax
	add ebx, 4


;ld_int 1
	mov eax, 1
	mov dword ptr [ebx], eax
	add ebx, 4


;add -1
	sub ebx, 4
	mov eax, [ebx]
	sub ebx, 4
	mov edx, [ebx]
	add eax, edx
	mov dword ptr [ebx], eax
	add ebx, 4


;store 1
	mov eax, [ebx-4]
	mov dword ptr [ebp-4], eax

;ld_var 0
	mov eax, [ebp-0]
	mov dword ptr [ebx], eax
	add ebx, 4


;ld_int 1
	mov eax, 1
	mov dword ptr [ebx], eax
	add ebx, 4


;sub -1
	sub ebx, 4
	mov eax, [ebx] ; right operand
	sub ebx, 4
	mov edx, [ebx] ; left operand
	sub edx, eax ; left - right
	mov dword ptr [ebx], edx
	add ebx, 4


;store 0
	mov eax, [ebx-4]
	mov dword ptr [ebp-0], eax

;while_end 25
	jmp WHILE_START_LABEL_25
WHILE_END_LABEL_25:


;ld_var 2
	mov eax, [ebp-8]
	mov dword ptr [ebx], eax
	add ebx, 4


;ld_var 0
	mov eax, [ebp-0]
	mov dword ptr [ebx], eax
	add ebx, 4


;ld_int 10
	mov eax, 10
	mov dword ptr [ebx], eax
	add ebx, 4


;lt 42
	sub ebx, 4
	mov eax, [ebx]
	sub ebx, 4
	mov edx, [ebx]
	cmp edx, eax
	jl LS42
	mov dword ptr [ebx], 0
	jmp LE42
	LS42: mov dword ptr [ebx], 1
	LE42: add ebx, 4



;mul -1
	sub ebx, 4
	mov eax, [ebx] ; right operand
	sub ebx, 4
	mov edx, [ebx] ; left operand
	imul edx, eax
	mov dword ptr [ebx], edx
	add ebx, 4


;if_start 44
	mov eax, [ebx-4]
	cmp eax, 0
	jle ELSE_START_LABEL_44


;ld_var 1
	mov eax, [ebp-4]
	mov dword ptr [ebx], eax
	add ebx, 4


;ld_int 2
	mov eax, 2
	mov dword ptr [ebx], eax
	add ebx, 4


;mul -1
	sub ebx, 4
	mov eax, [ebx] ; right operand
	sub ebx, 4
	mov edx, [ebx] ; left operand
	imul edx, eax
	mov dword ptr [ebx], edx
	add ebx, 4


;store 1
	mov eax, [ebx-4]
	mov dword ptr [ebp-4], eax

;else_start 44
	jmp ELSE_END_LABEL_44
ELSE_START_LABEL_44:


;else_end 44
ELSE_END_LABEL_44:


;halt -1
	add ebp, 100
	mov esp, ebp
	pop ebp
	ret
main endp
end
